HESS_1s_Transient_Study/HESS_1s_Transient_Study/01_OpenDSS_Model/RuhunaEngineering_VLN_Node.Txt

LINE-GROUND and LINE-LINE VOLTAGES BY BUS & NODE

Bus               Node    VLN (kV)   Angle      pu     Base kV    Node-Node   VLL (kV)  Angle      pu

SOURCEBUS ....... 1            0 /_   43.3         0    33.000        1-2          0 /_  168.7         0
   -              2            0 /_   34.3         0    33.000        2-3          0 /_  -76.0         0
   -              3            0 /_   42.1         0    33.000        3-1          0 /_   36.9         0
MAINBUS ......... 1            0 /_   69.1         0    33.000        1-2          0 /_  172.9         0
   -              2            0 /_   51.3         0    33.000        2-3          0 /_   76.0         0
   -              3            0 /_   46.8         0    33.000        3-1          0 /_  -35.5         0
PANELBUS ........ 1            0 /_   22.8         0    33.000        1-2          0 /_ -104.0         0
   -              2            0 /_   37.3         0    33.000        2-3          0 /_   26.6         0
   -              3            0 /_   38.3         0    33.000        3-1          0 /_   90.0         0
MECHWORKSHOPBUS . 1            0 /_   42.1         0    33.000        1-2          0 /_   -8.7         0
   -              2            0 /_   69.1         0    33.000        2-3          0 /_ -172.9         0
   -              3            0 /_   54.0         0    33.000        3-1          0 /_  149.0         0
HOSTELFBUS ...... 1            0 /_   46.8         0    33.000        1-2          0 /_  116.6         0
   -              2            0 /_   22.8         0    33.000        2-3          0 /_ -110.6         0
   -              3            0 /_   36.0         0    33.000        3-1          0 /_    0.0         0
GUESTHOUSEBUS ... 1            0 /_   36.9         0    33.000        1-2          0 /_  -45.0         0
   -              2            0 /_   49.9         0    33.000        2-3          0 /_   14.0         0
   -              3            0 /_   64.8         0    33.000        3-1          0 /_  170.5         0
AUDITORIUMBUS ... 1            0 /_   45.0         0    33.000        1-2          0 /_    0.0         0
   -              2            0 /_   46.8         0    33.000        2-3          0 /_  122.0         0
   -              3            0 /_   21.8         0    33.000        3-1          0 /_  -63.4         0
LIBRARYBUS ...... 1            0 /_   33.7         0    33.000        1-2          0 /_    9.5         0
   -              2            0 /_   39.8         0    33.000        2-3          0 /_ -116.6         0
   -              3            0 /_   45.0         0    33.000        3-1          0 /_  121.0         0
CIVILDEPTBUS .... 1            0 /_   69.1         0    33.000        1-2          0 /_ -166.0         0
   -              2            0 /_   55.2         0    33.000        2-3          0 /_   63.4         0
   -              3            0 /_   54.5         0    33.000        3-1          0 /_    0.0         0
MECHDEPTBUS ..... 1            0 /_   20.9         0    33.000        1-2          0 /_ -116.6         0
   -              2            0 /_   32.6         0    33.000        2-3          0 /_   11.3         0
   -              3            0 /_   36.9         0    33.000        3-1          0 /_   98.1         0
ELECDEPTBUS ..... 1            0 /_   52.7         0    33.000        1-2          0 /_  -26.6         0
   -              2            0 /_   72.3         0    33.000        2-3          0 /_  172.9         0
   -              3            0 /_   56.3         0    33.000        3-1          0 /_   90.0         0
LTDBUS .......... 1            0 /_   54.5         0    33.000        1-2          0 /_  114.8         0
   -              2            0 /_   20.9         0    33.000        2-3          0 /_  -97.1         0
   -              3            0 /_   36.0         0    33.000        3-1          0 /_  -35.5         0
HOSTELCBUS ...... 1            0 /_   38.3         0    33.000        1-2          0 /_ -108.4         0
   -              2            0 /_   45.0         0    33.000        2-3          0 /_   -4.4         0
   -              3            0 /_   70.0         0    33.000        3-1          0 /_  147.5         0
HOSTELDBUS ...... 1            0 /_   46.7         0    33.000        1-2          0 /_   45.0         0
   -              2            0 /_   46.8         0    33.000        2-3          0 /_  126.9         0
   -              3            0 /_   20.9         0    33.000        3-1          0 /_  -60.9         0
GYMBUS .......... 1            0 /_   36.0         0    33.000        1-2          0 /_  153.4         0
   -              2            0 /_   32.0         0    33.000        2-3          0 /_  -36.9         0
   -              3            0 /_   52.7         0    33.000        3-1          0 /_  140.2         0
EVBUS ........... 1            0 /_   70.8         0    33.000        1-2          0 /_  143.1         0
   -              2            0 /_   46.7         0    33.000        2-3          0 /_   45.0         0
   -              3            0 /_   46.8         0    33.000        3-1          0 /_  -45.0         0
LECTURETHEATREBUS 1            0 /_   20.9         0    33.000        1-2          0 /_  -58.0         0
   -              2            0 /_   45.0         0    33.000        2-3          0 /_  161.6         0
   -              3            0 /_   38.3         0    33.000        3-1          0 /_  105.9         0
ADMINBUS ........ 1            0 /_   54.0         0    33.000        1-2          0 /_   14.0         0
   -              2            0 /_   68.2         0    33.000        2-3          0 /_ -148.0         0
   -              3            0 /_   57.4         0    33.000        3-1          0 /_   90.0         0
PUMPHOUSEBUS .... 1            0 /_   46.8         0    33.000        1-2          0 /_  131.2         0
   -              2            0 /_   20.0         0    33.000        2-3          0 /_  -58.0         0
   -              3            0 /_   43.3         0    33.000        3-1          0 /_    0.0         0
SECURITYBUS ..... 1            0 /_   41.4         0    33.000        1-2          0 /_  -83.7         0
   -              2            0 /_   56.3         0    33.000        2-3          0 /_   32.0         0
   -              3            0 /_   67.2         0    33.000        3-1          0 /_  156.0         0
UPPERCANTEENBUS . 1            0 /_   52.7         0    33.000        1-2          0 /_   90.0         0
   -              2            0 /_   51.3         0    33.000        2-3          0 /_   76.0         0
   -              3            0 /_   46.8         0    33.000        3-1          0 /_ -101.3         0
LOWERCANTEENBUS . 1            0 /_   46.8         0    33.000        1-2          0 /_  131.2         0
   -              2            0 /_   20.0         0    33.000        2-3          0 /_ -110.6         0
   -              3            0 /_   32.6         0    33.000        3-1          0 /_    0.0         0
BOYSHOSTELBBUS .. 1            0 /_   17.7         0    33.000        1-2          0 /_  -41.6         0
   -              2            0 /_   45.0         0    33.000        2-3          0 /_  161.6         0
   -              3            0 /_   38.3         0    33.000        3-1          0 /_  130.6         0
GIRLSHOSTELBUS .. 1            0 /_   57.4         0    33.000        1-2          0 /_   14.0         0
   -              2            0 /_   70.8         0    33.000        2-3          0 /_  153.4         0
   -              3            0 /_   49.9         0    33.000        3-1          0 /_  -90.0         0
HOSTELBLOCKBUS .. 1            0 /_   46.8         0    33.000        1-2          0 /_  141.3         0
   -              2            0 /_   17.7         0    33.000        2-3          0 /_  -90.0         0
   -              3            0 /_   32.6         0    33.000        3-1          0 /_    0.0         0
GENERATORBUS .... 1            0 /_   39.8         0    33.000        1-2          0 /_  -76.0         0
   -              2            0 /_   55.2         0    33.000        2-3          0 /_   14.0         0
   -              3            0 /_   69.1         0    33.000        3-1          0 /_  149.0         0
